/*--------------------------------*- C++ -*----------------------------------*\
| =========                 |                                                 |
| \\      /  F ield         | OpenFOAM: The Open Source CFD Toolbox           |
|  \\    /   O peration     | Version:  5                                     |
|   \\  /    A nd           | Web:      www.OpenFOAM.org                      |
|    \\/     M anipulation  |                                                 |
\*---------------------------------------------------------------------------*/
FoamFile
{
    version     2.0;
    format      ascii;
    class       dictionary;
    location    "system";
    object      controlDict;
}
// * * * * * * * * * * * * * * * * * * * * * * * * * * * * * * * * * * * * * //

application     evapFoam;

startFrom       startTime;

startTime       12;

stopAt          endTime;

endTime         13;

deltaT          0.0001;

writeControl    adjustableRunTime;

writeInterval   0.001;

purgeWrite      0;

writeFormat     ascii;

writePrecision  20;

writeCompression uncompressed;

timeFormat      general;

timePrecision   6;

runTimeModifiable yes;

adjustTimeStep  yes;

maxCo           1;
maxAlphaCo      1;

maxDeltaT       1;


// ************************************************************************* //
