/*--------------------------------*- C++ -*----------------------------------*\
  =========                 |
  \\      /  F ield         | OpenFOAM: The Open Source CFD Toolbox
   \\    /   O peration     | Website:  https://openfoam.org
    \\  /    A nd           | Version:  7
     \\/     M anipulation  |
\*---------------------------------------------------------------------------*/
FoamFile
{
    version     2.0;
    format      ascii;
    class       dictionary;
    location    "constant";
    object      particleProperties;
}
// * * * * * * * * * * * * * * * * * * * * * * * * * * * * * * * * * * * * * //

solution
{
    active          true;
    coupled         true;
    transient       yes;
    cellValueSourceCorrection off;

    interpolationSchemes
    {
        rho             cell;
        U_lagrangian    cellPointFace;
        mu              cell;
        nonOrthDeltaCoeffs cell;
    }

    integrationSchemes
    {
        U               Euler;
    }

    sourceTerms
    {
        schemes
        {
            U semiImplicit 1;
        }
    }
}

constantProperties
{
    parcelTypeId 1;

    rhoMin          0.0; //1e-15;
    minParcelMass   0.0; //1e-15;

    rho0            2526;
    youngsModulus   1e8;
    poissonsRatio   0.35;

    constantVolume  false;

    alphaMax        0.99;
}

subModels
{
    particleForces
    {
        sphereDrag;
        //gravity;
    }

    injectionModels
    {
        model1
        {
            type            manualInjection;
            massTotal       0;
            parcelBasisType fixed;
            nParticle       1;
            SOI             0;
            positionsFile   "kinematicCloudPositions";
            U0              (0 0 0);
            sizeDistribution
            {
                type        fixedValue;
                fixedValueDistribution
                {
                    value   1e-7;
                }
            }
        }
    }

    dispersionModel none;

    patchInteractionModel none;

    standardWallInteractionCoeffs
    {
        type rebound;
        e    0.97;
        mu   0.09;
    }

    heatTransferModel none;

    surfaceFilmModel none;

    collisionModel none; //pairCollision;

    pairCollisionCoeffs
    {
        maxInteractionDistance  0.0025;

        writeReferredParticleCloud no;

        pairModel pairSpringSliderDashpot;

        pairSpringSliderDashpotCoeffs
        {
            useEquivalentSize   no;
            alpha               0.02;
            b                   1.5;
            mu                  0.10;
            cohesionEnergyDensity 0;
            collisionResolutionSteps 12;
        };


        wallModel wallSpringSliderDashpot;

        wallSpringSliderDashpotCoeffs
        {
            useEquivalentSize no;
            collisionResolutionSteps 12;
            youngsModulus   1e8;
            poissonsRatio   0.23;
            alpha           0.01;
            b               1.5;
            mu              0.09;
            cohesionEnergyDensity 0;
        };


        U     U;
    }

    stochasticCollisionModel none;

    radiation off;
}


cloudFunctions
{}


// ************************************************************************* //
