/*--------------------------------*- C++ -*----------------------------------*\ 
  =========                 |
  \      /  F ield         | OpenFOAM: The Open Source CFD Toolbox
   \    /   O peration     | Website:  https://openfoam.org
    \  /    A nd           | Version:  7
     \/     M anipulation  |
\*---------------------------------------------------------------------------*/ 
FoamFile
{
    version     2.0;
    format      ascii;
    class       vectorField;
    object      kinematicCloudPositions;
}
// * * * * * * * * * * * * * * * * * * * * * * * * * * * * * * * * * * * * * // 
(
(0.001485	0.0014110	0.00002)
(0.002420	0.0014110	0.00002)
(0.002238	0.0014560	0.00002)
(0.001658	0.0011000	0.00002)
(0.002211	0.0031020	0.00002)
(0.002032	0.0016820	0.00002)
(0.002163	0.0031430	0.00002)
(0.001984	0.0028870	0.00002)
(0.001650	0.0008200	0.00002)
(0.002328	0.0010370	0.00002)
(0.001290	0.0011830	0.00002)
(0.001355	0.0030500	0.00002)
(0.002940	0.0022730	0.00002)
(0.002547	0.0016330	0.00002)
(0.000772	0.0020170	0.00002)
(0.001264	0.0016160	0.00002)
(0.000910	0.0019750	0.00002)
(0.002844	0.0028880	0.00002)
(0.000807	0.0015900	0.00002)
(0.002574	0.0029460	0.00002)
(0.002223	0.0010370	0.00002)
(0.001714	0.0014100	0.00002)
(0.002409	0.0007390	0.00002)
(0.001444	0.0032230	0.00002)
(0.002503	0.0026370	0.00002)
(0.002181	0.0016280	0.00002)
(0.002510	0.0013630	0.00002)
(0.001614	0.0023200	0.00002)
(0.002742	0.0029340	0.00002)
(0.002531	0.0022950	0.00002)
(0.001245	0.0015090	0.00002)
(0.002734	0.0021160	0.00002)
(0.001878	0.0015700	0.00002)
(0.001685	0.0029000	0.00002)
(0.002985	0.0013900	0.00002)
(0.001736	0.0034270	0.00002)
(0.002806	0.0027220	0.00002)
(0.000753	0.0013210	0.00002)
(0.001867	0.0019290	0.00002)
(0.002478	0.0030420	0.00002)
(0.001230	0.0016250	0.00002)
(0.001476	0.0032140	0.00002)
(0.000810	0.0021880	0.00002)
(0.001329	0.0009680	0.00002)
(0.002104	0.0015820	0.00002)
(0.002398	0.0029820	0.00002)
(0.003080	0.0026270	0.00002)
(0.002455	0.0009880	0.00002)
(0.001996	0.0032620	0.00002)
(0.002934	0.0030770	0.00002)
(0.000870	0.0015990	0.00002)
(0.000749	0.0015150	0.00002)
(0.001941	0.0017960	0.00002)
(0.002283	0.0013800	0.00002)
(0.001029	0.0014960	0.00002)
(0.001937	0.0022980	0.00002)
(0.001860	0.0005850	0.00002)
(0.001631	0.0019690	0.00002)
(0.002507	0.0017640	0.00002)
(0.001701	0.0018260	0.00002)
(0.002310	0.0021240	0.00002)
(0.001304	0.0026370	0.00002)
(0.003324	0.0020850	0.00002)
(0.003285	0.0022630	0.00002)
(0.001932	0.0014370	0.00002)
(0.002686	0.0020410	0.00002)
(0.002249	0.0021370	0.00002)
(0.001048	0.0027080	0.00002)
(0.003107	0.0025170	0.00002)
(0.001616	0.0019880	0.00002)
(0.002724	0.0028730	0.00002)
(0.002916	0.0018440	0.00002)
(0.002451	0.0022470	0.00002)
(0.001854	0.0013970	0.00002)
(0.001558	0.0010550	0.00002)
(0.002281	0.0028510	0.00002)
(0.001197	0.0018850	0.00002)
(0.002769	0.0028080	0.00002)
(0.001997	0.0025670	0.00002)
(0.002836	0.0030200	0.00002)
(0.003050	0.0022300	0.00002)
(0.001567	0.0013920	0.00002)
(0.003138	0.0023910	0.00002)
(0.003187	0.0019860	0.00002)
(0.002540	0.0029150	0.00002)
(0.001120	0.0018080	0.00002)
(0.001951	0.0010710	0.00002)
(0.002224	0.0010310	0.00002)
(0.001593	0.0032790	0.00002)
(0.001733	0.0010030	0.00002)
(0.003028	0.0021400	0.00002)
(0.001865	0.0011950	0.00002)
(0.001688	0.0018110	0.00002)
(0.001427	0.0007980	0.00002)
(0.000985	0.0023020	0.00002)
(0.000782	0.0021800	0.00002)
(0.001183	0.0014580	0.00002)
(0.002179	0.0024860	0.00002)
(0.002609	0.0019510	0.00002)
(0.002109	0.0022670	0.00002)
(0.001187	0.0010670	0.00002)
(0.001726	0.0012190	0.00002)
(0.001420	0.0026700	0.00002)
(0.002679	0.0019360	0.00002)
(0.001849	0.0019950	0.00002)
(0.001274	0.0018220	0.00002)
(0.002288	0.0032310	0.00002)
(0.001773	0.0027800	0.00002)
(0.002282	0.0029060	0.00002)
(0.001560	0.0020310	0.00002)
(0.001813	0.0014400	0.00002)
(0.001074	0.0008470	0.00002)
(0.000903	0.0023900	0.00002)
(0.002041	0.0017960	0.00002)
(0.001754	0.0031700	0.00002)
(0.002450	0.0009520	0.00002)
(0.002702	0.0018830	0.00002)
(0.001999	0.0022360	0.00002)
(0.001106	0.0021260	0.00002)
(0.001770	0.0008510	0.00002)
(0.001786	0.0022740	0.00002)
(0.000934	0.0026040	0.00002)
(0.001798	0.0023840	0.00002)
(0.001756	0.0027820	0.00002)
(0.001397	0.0020680	0.00002)
(0.000749	0.0021710	0.00002)
(0.001974	0.0018040	0.00002)
(0.001547	0.0018240	0.00002)
(0.001859	0.0012580	0.00002)
(0.001595	0.0031510	0.00002)
(0.002148	0.0021390	0.00002)
(0.002876	0.0025700	0.00002)
(0.002047	0.0031400	0.00002)
(0.002942	0.0020430	0.00002)
(0.003192	0.0013550	0.00002)
(0.001446	0.0015340	0.00002)
(0.001082	0.0023230	0.00002)
(0.002112	0.0017350	0.00002)
(0.002111	0.0014690	0.00002)
(0.002208	0.0007920	0.00002)
(0.002227	0.0020540	0.00002)
(0.001106	0.0024580	0.00002)
(0.002640	0.0009260	0.00002)
(0.002547	0.0010520	0.00002)
(0.001875	0.0020270	0.00002)
(0.001776	0.0015870	0.00002)
(0.002902	0.0018590	0.00002)
(0.002942	0.0012090	0.00002)
(0.001572	0.0022450	0.00002)
(0.002705	0.0023440	0.00002)
(0.001077	0.0028750	0.00002)
(0.002828	0.0023030	0.00002)
(0.002600	0.0011520	0.00002)
(0.002220	0.0023710	0.00002)
(0.001290	0.0023290	0.00002)
(0.002323	0.0023200	0.00002)
(0.002416	0.0015980	0.00002)
(0.001186	0.0015740	0.00002)
(0.002016	0.0034140	0.00002)
(0.001455	0.0029390	0.00002)
(0.002467	0.0017080	0.00002)
(0.002083	0.0011670	0.00002)
(0.002735	0.0019410	0.00002)
(0.002346	0.0019810	0.00002)
(0.000966	0.0020220	0.00002)
(0.002235	0.0022730	0.00002)
(0.000584	0.0020880	0.00002)
(0.002142	0.0008720	0.00002)
(0.002248	0.0013620	0.00002)
(0.002286	0.0018130	0.00002)
(0.001327	0.0008070	0.00002)
(0.002000	0.0006930	0.00002)
(0.001711	0.0009850	0.00002)
(0.002795	0.0010480	0.00002)
(0.002733	0.0010240	0.00002)
(0.003235	0.0023430	0.00002)
(0.002945	0.0029920	0.00002)
(0.002483	0.0018290	0.00002)
(0.001776	0.0027760	0.00002)
(0.000962	0.0015590	0.00002)
(0.002109	0.0030840	0.00002)
(0.002655	0.0019230	0.00002)
(0.002368	0.0008810	0.00002)
(0.001443	0.0008580	0.00002)
(0.001708	0.0027320	0.00002)
(0.002351	0.0011240	0.00002)
(0.001003	0.0026290	0.00002)
(0.001869	0.0019930	0.00002)
(0.002808	0.0018050	0.00002)
(0.001847	0.0013910	0.00002)
(0.001188	0.0013150	0.00002)
(0.001896	0.0021580	0.00002)
(0.002832	0.0013860	0.00002)
(0.002624	0.0024750	0.00002)
(0.001806	0.0019370	0.00002)
(0.002503	0.0026580	0.00002)
(0.001927	0.0032070	0.00002)
(0.003302	0.0024510	0.00002)
(0.002591	0.0021890	0.00002)
(0.002936	0.0030320	0.00002)
(0.000868	0.0019370	0.00002)
(0.001545	0.0016600	0.00002)
(0.001349	0.0019530	0.00002)
(0.002418	0.0010960	0.00002)
(0.001837	0.0006850	0.00002)
(0.001324	0.0008440	0.00002)
(0.002934	0.0020210	0.00002)
(0.002599	0.0028900	0.00002)
(0.003197	0.0023640	0.00002)
(0.001821	0.0010260	0.00002)
(0.002528	0.0015080	0.00002)
(0.002304	0.0030810	0.00002)
(0.002063	0.0015750	0.00002)
(0.002234	0.0020230	0.00002)
(0.003005	0.0018350	0.00002)
(0.002820	0.0024500	0.00002)
(0.002622	0.0011660	0.00002)
(0.002739	0.0030480	0.00002)
(0.002249	0.0018950	0.00002)
(0.003041	0.0021840	0.00002)
(0.002143	0.0027340	0.00002)
(0.002334	0.0030770	0.00002)
(0.001715	0.0027530	0.00002)
(0.001703	0.0018150	0.00002)
(0.002328	0.0024120	0.00002)
(0.001340	0.0016200	0.00002)
(0.003335	0.0025910	0.00002)
(0.001689	0.0028300	0.00002)
(0.001966	0.0015030	0.00002)
(0.002286	0.0015380	0.00002)
(0.001953	0.0009400	0.00002)
(0.002334	0.0025140	0.00002)
(0.001784	0.0016030	0.00002)
(0.002596	0.0015130	0.00002)
(0.002047	0.0016770	0.00002)
(0.003185	0.0020160	0.00002)
(0.001607	0.0018190	0.00002)
(0.002843	0.0020130	0.00002)
(0.000587	0.0018320	0.00002)
(0.002779	0.0013280	0.00002)
(0.002785	0.0019160	0.00002)
(0.001053	0.0020860	0.00002)
(0.001921	0.0030300	0.00002)
(0.001260	0.0022140	0.00002)
(0.002485	0.0011770	0.00002)
(0.000955	0.0026510	0.00002)
(0.002889	0.0015960	0.00002)
(0.001604	0.0027410	0.00002)
(0.001310	0.0021030	0.00002)
(0.001093	0.0026990	0.00002)
(0.001455	0.0016020	0.00002)
(0.003359	0.0024900	0.00002)
(0.002452	0.0029930	0.00002)
(0.002073	0.0023790	0.00002)
(0.001596	0.0026070	0.00002)
(0.002557	0.0030760	0.00002)
(0.002216	0.0021190	0.00002)
(0.001591	0.0026140	0.00002)
(0.002228	0.0007830	0.00002)
(0.000883	0.0020320	0.00002)
(0.001980	0.0018120	0.00002)
(0.002485	0.0011350	0.00002)
(0.002755	0.0027880	0.00002)
(0.002667	0.0029150	0.00002)
(0.001451	0.0017590	0.00002)
(0.000788	0.0023130	0.00002)
(0.001293	0.0019560	0.00002)
(0.002289	0.0021840	0.00002)
(0.001843	0.0012550	0.00002)
(0.001002	0.0018310	0.00002)
(0.002434	0.0014130	0.00002)
(0.002399	0.0019880	0.00002)
(0.001492	0.0021310	0.00002)
(0.001497	0.0010720	0.00002)
(0.001935	0.0023430	0.00002)
(0.002984	0.0016200	0.00002)
(0.001603	0.0024090	0.00002)
(0.002049	0.0010550	0.00002)
(0.001218	0.0023780	0.00002)
(0.001374	0.0024470	0.00002)
(0.003231	0.0022740	0.00002)
(0.002485	0.0031630	0.00002)
(0.001366	0.0017460	0.00002)
(0.002274	0.0015870	0.00002)
(0.001436	0.0013680	0.00002)
(0.001520	0.0015520	0.00002)
(0.002634	0.0029620	0.00002)
(0.002292	0.0015360	0.00002)
(0.000781	0.0020030	0.00002)
(0.002158	0.0022890	0.00002)
(0.001851	0.0007750	0.00002)
(0.002343	0.0028240	0.00002)
(0.002033	0.0015150	0.00002)
(0.002391	0.0029080	0.00002)
(0.001361	0.0023730	0.00002)
(0.001870	0.0019580	0.00002)
(0.002298	0.0016040	0.00002)
(0.002323	0.0021130	0.00002)
(0.001205	0.0029700	0.00002)
(0.000867	0.0011420	0.00002)
(0.001694	0.0021800	0.00002)
(0.002261	0.0019030	0.00002)
(0.001801	0.0026960	0.00002)
(0.002369	0.0015410	0.00002)
(0.002590	0.0020610	0.00002)
(0.002346	0.0022490	0.00002)
(0.002629	0.0016420	0.00002)
(0.002777	0.0014530	0.00002)
(0.001683	0.0008770	0.00002)
(0.002092	0.0019340	0.00002)
(0.002793	0.0010290	0.00002)
(0.003127	0.0022750	0.00002)
(0.003341	0.0015680	0.00002)
(0.002400	0.0010240	0.00002)
(0.000960	0.0009540	0.00002)
(0.001525	0.0007620	0.00002)
(0.002109	0.0025930	0.00002)
(0.001030	0.0017440	0.00002)
(0.002374	0.0017230	0.00002)
(0.001183	0.0031000	0.00002)
(0.000784	0.0019510	0.00002)
(0.001607	0.0022480	0.00002)
(0.002454	0.0020860	0.00002)
(0.000891	0.0022950	0.00002)
(0.001349	0.0020890	0.00002)
(0.001859	0.0009190	0.00002)
(0.002722	0.0029980	0.00002)
(0.000824	0.0019420	0.00002)
(0.002055	0.0023950	0.00002)
(0.001517	0.0031810	0.00002)
(0.000795	0.0018580	0.00002)
(0.002980	0.0019230	0.00002)
(0.000911	0.0014620	0.00002)
(0.002942	0.0016570	0.00002)
(0.003082	0.0019690	0.00002)
(0.002903	0.0011480	0.00002)
(0.000832	0.0015220	0.00002)
(0.001507	0.0015840	0.00002)
(0.002361	0.0029810	0.00002)
(0.001828	0.0022920	0.00002)
(0.001368	0.0026170	0.00002)
(0.001131	0.0027070	0.00002)
(0.001384	0.0023450	0.00002)
(0.002695	0.0018190	0.00002)
(0.000982	0.0022250	0.00002)
(0.002381	0.0013930	0.00002)
(0.003172	0.0016760	0.00002)
(0.002610	0.0008130	0.00002)
(0.002637	0.0009310	0.00002)
(0.001968	0.0007410	0.00002)
(0.003210	0.0018180	0.00002)
(0.001390	0.0010810	0.00002)
(0.002469	0.0016740	0.00002)
(0.001783	0.0012220	0.00002)
(0.002955	0.0026580	0.00002)
(0.002635	0.0007740	0.00002)
(0.002504	0.0028730	0.00002)
(0.002304	0.0015170	0.00002)
(0.002399	0.0024950	0.00002)
(0.002416	0.0007740	0.00002)
(0.001910	0.0013830	0.00002)
(0.002471	0.0008950	0.00002)
(0.002379	0.0018140	0.00002)
(0.002099	0.0028570	0.00002)
(0.001849	0.0023520	0.00002)
(0.002361	0.0010420	0.00002)
(0.001891	0.0023520	0.00002)
(0.002855	0.0015840	0.00002)
(0.001340	0.0027400	0.00002)
(0.000891	0.0014060	0.00002)
(0.001018	0.0021780	0.00002)
(0.001537	0.0020670	0.00002)
(0.002387	0.0027970	0.00002)
(0.002046	0.0029510	0.00002)
(0.002417	0.0022430	0.00002)
(0.001153	0.0019320	0.00002)
(0.002226	0.0016310	0.00002)
(0.003097	0.0017350	0.00002)
(0.002783	0.0017250	0.00002)
(0.002239	0.0020780	0.00002)
(0.001685	0.0012100	0.00002)
(0.000996	0.0015480	0.00002)
(0.002593	0.0024140	0.00002)
(0.001864	0.0031820	0.00002)
(0.002176	0.0018010	0.00002)
(0.003086	0.0016810	0.00002)
(0.001940	0.0011390	0.00002)
(0.001585	0.0029040	0.00002)
(0.001646	0.0008280	0.00002)
(0.002820	0.0025570	0.00002)
(0.002251	0.0014010	0.00002)
(0.001312	0.0021040	0.00002)
(0.003095	0.0013550	0.00002)
(0.001237	0.0016080	0.00002)
(0.000888	0.0027040	0.00002)
(0.001036	0.0016360	0.00002)
(0.001660	0.0022550	0.00002)
(0.002604	0.0014460	0.00002)
(0.001668	0.0008960	0.00002)
(0.001776	0.0027600	0.00002)
(0.002598	0.0021800	0.00002)
(0.000635	0.0017660	0.00002)
(0.001462	0.0020040	0.00002)
(0.002916	0.0021360	0.00002)
(0.001669	0.0020840	0.00002)
(0.002280	0.0014110	0.00002)
(0.002109	0.0021350	0.00002)
(0.001373	0.0014630	0.00002)
(0.001161	0.0022730	0.00002)
(0.002010	0.0007510	0.00002)
(0.001113	0.0022440	0.00002)
(0.001368	0.0022730	0.00002)
(0.002048	0.0007560	0.00002)
(0.001432	0.0020860	0.00002)
(0.000616	0.0015160	0.00002)
(0.001924	0.0021180	0.00002)
(0.001999	0.0023230	0.00002)
(0.001884	0.0020610	0.00002)
(0.001360	0.0015920	0.00002)
(0.000573	0.0019370	0.00002)
(0.001744	0.0016300	0.00002)
(0.002254	0.0024280	0.00002)
(0.001256	0.0027220	0.00002)
(0.002946	0.0023120	0.00002)
(0.001681	0.0025490	0.00002)
(0.002656	0.0026820	0.00002)
(0.000947	0.0021310	0.00002)
(0.002947	0.0017190	0.00002)
(0.000856	0.0025300	0.00002)
(0.001423	0.0027340	0.00002)
(0.001184	0.0011780	0.00002)
(0.003034	0.0020060	0.00002)
(0.002751	0.0014710	0.00002)
(0.000932	0.0028570	0.00002)
(0.001859	0.0009830	0.00002)
(0.002135	0.0006370	0.00002)
(0.002337	0.0028170	0.00002)
(0.002626	0.0017540	0.00002)
(0.001773	0.0032570	0.00002)
(0.001780	0.0009340	0.00002)
(0.002458	0.0019890	0.00002)
(0.001878	0.0023850	0.00002)
(0.003071	0.0014150	0.00002)
(0.002388	0.0017200	0.00002)
(0.001684	0.0016710	0.00002)
(0.002151	0.0018020	0.00002)
(0.001191	0.0025740	0.00002)
(0.002833	0.0024580	0.00002)
(0.001690	0.0033530	0.00002)
(0.001967	0.0016230	0.00002)
(0.003155	0.0015530	0.00002)
(0.002438	0.0030590	0.00002)
(0.001278	0.0014100	0.00002)
(0.002229	0.0022810	0.00002)
(0.003135	0.0011420	0.00002)
(0.000711	0.0020180	0.00002)
(0.002853	0.0026180	0.00002)
(0.003012	0.0012770	0.00002)
(0.002777	0.0028800	0.00002)
(0.001507	0.0019340	0.00002)
(0.002681	0.0019270	0.00002)
(0.001108	0.0018210	0.00002)
(0.002167	0.0012100	0.00002)
(0.002885	0.0012830	0.00002)
(0.002701	0.0014740	0.00002)
(0.002962	0.0020640	0.00002)
(0.002274	0.0016910	0.00002)
(0.003172	0.0019500	0.00002)
(0.002070	0.0019320	0.00002)
(0.002321	0.0014740	0.00002)
(0.003079	0.0021370	0.00002)
(0.000933	0.0011610	0.00002)
(0.002448	0.0017040	0.00002)
(0.002055	0.0023270	0.00002)
(0.002244	0.0026200	0.00002)
(0.003256	0.0016920	0.00002)
(0.000767	0.0020500	0.00002)
(0.002338	0.0030310	0.00002)
(0.001595	0.0016740	0.00002)
(0.002788	0.0028100	0.00002)
(0.001960	0.0030560	0.00002)
(0.000845	0.0027150	0.00002)
(0.002665	0.0025060	0.00002)
(0.001197	0.0008360	0.00002)
(0.001065	0.0014510	0.00002)
(0.002233	0.0023520	0.00002)
(0.001172	0.0028910	0.00002)
(0.003287	0.0020460	0.00002)
(0.001599	0.0026470	0.00002)
(0.002205	0.0007370	0.00002)
(0.001504	0.0023510	0.00002)
(0.001476	0.0021640	0.00002)
(0.001826	0.0015730	0.00002)
(0.001706	0.0021230	0.00002)
(0.001996	0.0025160	0.00002)
(0.002452	0.0014560	0.00002)
(0.000959	0.0029870	0.00002)
(0.003097	0.0013910	0.00002)
(0.001781	0.0028410	0.00002)
(0.001305	0.0016390	0.00002)
(0.001936	0.0015160	0.00002)
(0.002723	0.0015610	0.00002)
(0.001771	0.0023510	0.00002)
(0.002379	0.0007680	0.00002)
(0.002356	0.0014640	0.00002)
(0.003035	0.0012850	0.00002)
(0.001826	0.0030030	0.00002)
(0.002060	0.0026770	0.00002)
(0.001244	0.0014170	0.00002)
(0.001792	0.0011270	0.00002)
(0.002464	0.0015080	0.00002)
(0.001058	0.0017360	0.00002)
(0.001859	0.0010020	0.00002)
(0.002088	0.0017910	0.00002)
(0.001853	0.0022660	0.00002)
(0.001926	0.0012960	0.00002)
(0.002248	0.0025680	0.00002)
(0.001316	0.0022350	0.00002)
(0.001709	0.0027040	0.00002)
(0.002763	0.0016190	0.00002)
(0.002453	0.0014790	0.00002)
(0.002832	0.0012010	0.00002)
(0.003478	0.0018670	0.00002)
(0.001436	0.0030520	0.00002)
(0.001180	0.0014590	0.00002)
(0.001215	0.0022200	0.00002)
(0.003367	0.0018650	0.00002)
(0.003130	0.0015140	0.00002)
(0.002085	0.0025730	0.00002)
(0.001828	0.0016550	0.00002)
(0.001014	0.0016000	0.00002)
(0.001768	0.0017530	0.00002)
(0.001859	0.0024240	0.00002)
(0.002361	0.0032350	0.00002)
(0.002854	0.0016970	0.00002)
(0.001504	0.0015460	0.00002)
(0.001244	0.0024520	0.00002)
(0.002821	0.0020540	0.00002)
(0.002101	0.0032440	0.00002)
(0.001569	0.0030210	0.00002)
(0.000827	0.0018800	0.00002)
(0.002868	0.0029480	0.00002)
(0.001028	0.0009300	0.00002)
(0.000777	0.0028590	0.00002)
(0.001172	0.0019630	0.00002)
(0.002438	0.0019050	0.00002)
(0.001822	0.0011150	0.00002)
(0.002402	0.0012070	0.00002)
(0.001375	0.0009150	0.00002)
(0.002798	0.0015550	0.00002)
(0.002000	0.0022850	0.00002)
(0.001274	0.0024090	0.00002)
(0.001094	0.0023510	0.00002)
(0.002714	0.0015840	0.00002)
(0.002275	0.0007470	0.00002)
(0.000974	0.0012230	0.00002)
(0.001639	0.0008740	0.00002)
(0.000864	0.0013580	0.00002)
(0.001629	0.0025350	0.00002)
(0.001427	0.0030710	0.00002)
(0.001569	0.0033070	0.00002)
(0.002721	0.0012020	0.00002)
(0.002928	0.0021110	0.00002)
(0.002363	0.0027570	0.00002)
(0.002517	0.0011410	0.00002)
(0.001761	0.0014880	0.00002)
(0.002481	0.0012270	0.00002)
(0.002326	0.0023050	0.00002)
(0.001076	0.0014050	0.00002)
(0.001332	0.0023900	0.00002)
(0.000951	0.0022000	0.00002)
(0.002063	0.0005350	0.00002)
(0.001810	0.0022540	0.00002)
(0.002450	0.0018560	0.00002)
(0.003159	0.0028670	0.00002)
(0.001463	0.0022340	0.00002)
(0.001721	0.0014400	0.00002)
(0.001582	0.0014300	0.00002)
(0.001690	0.0025350	0.00002)
(0.002943	0.0027590	0.00002)
(0.002203	0.0027850	0.00002)
(0.001752	0.0021910	0.00002)
(0.001848	0.0022680	0.00002)
(0.001293	0.0019830	0.00002)
(0.000730	0.0018580	0.00002)
(0.001853	0.0016810	0.00002)
(0.003190	0.0016560	0.00002)
(0.001716	0.0033400	0.00002)
(0.002534	0.0012820	0.00002)
(0.002740	0.0025950	0.00002)
(0.002761	0.0017260	0.00002)
(0.001474	0.0033090	0.00002)
(0.002713	0.0014540	0.00002)
(0.001624	0.0018810	0.00002)
(0.002420	0.0013430	0.00002)
(0.001995	0.0030290	0.00002)
(0.001042	0.0010470	0.00002)
(0.002625	0.0019140	0.00002)
(0.001215	0.0010110	0.00002)
(0.002555	0.0012940	0.00002)
(0.001324	0.0023300	0.00002)
(0.002395	0.0012310	0.00002)
(0.002744	0.0022400	0.00002)
(0.001484	0.0024890	0.00002)
(0.001986	0.0006740	0.00002)
(0.002196	0.0020230	0.00002)
(0.001152	0.0018080	0.00002)
(0.002214	0.0021950	0.00002)
(0.001813	0.0019510	0.00002)
(0.001842	0.0012820	0.00002)
(0.002150	0.0014720	0.00002)
(0.001103	0.0019260	0.00002)
(0.002652	0.0018510	0.00002)
(0.000847	0.0011280	0.00002)
(0.001647	0.0013990	0.00002)
(0.001370	0.0010430	0.00002)
(0.002692	0.0013300	0.00002)
(0.001010	0.0013910	0.00002)
(0.001331	0.0022820	0.00002)
(0.001596	0.0019760	0.00002)
(0.002911	0.0020720	0.00002)
(0.001119	0.0025200	0.00002)
(0.001848	0.0007170	0.00002)
(0.001852	0.0021050	0.00002)
(0.002128	0.0032700	0.00002)
(0.001735	0.0034350	0.00002)
(0.002676	0.0026180	0.00002)
(0.002715	0.0031510	0.00002)
(0.001080	0.0016030	0.00002)
(0.001599	0.0026890	0.00002)
(0.002155	0.0033260	0.00002)
(0.001402	0.0024080	0.00002)
(0.002048	0.0032120	0.00002)
(0.001077	0.0018050	0.00002)
(0.002566	0.0026830	0.00002)
(0.001019	0.0018500	0.00002)
(0.003316	0.0017940	0.00002)
(0.002832	0.0018070	0.00002)
(0.001025	0.0008720	0.00002)
(0.001710	0.0012450	0.00002)
(0.001582	0.0028520	0.00002)
(0.002452	0.0024770	0.00002)
(0.002573	0.0022620	0.00002)
(0.000904	0.0019270	0.00002)
(0.000920	0.0018540	0.00002)
(0.002529	0.0012230	0.00002)
(0.001447	0.0011000	0.00002)
(0.001295	0.0008440	0.00002)
(0.002766	0.0027120	0.00002)
(0.002052	0.0012670	0.00002)
(0.002592	0.0011330	0.00002)
(0.002151	0.0033830	0.00002)
(0.001175	0.0019670	0.00002)
(0.003420	0.0021030	0.00002)
(0.001804	0.0023560	0.00002)
(0.002385	0.0028950	0.00002)
(0.002271	0.0008390	0.00002)
(0.002714	0.0017930	0.00002)
(0.001290	0.0024170	0.00002)
(0.001456	0.0030650	0.00002)
(0.001688	0.0018580	0.00002)
(0.001020	0.0023130	0.00002)
(0.002260	0.0013570	0.00002)
(0.001865	0.0031960	0.00002)
(0.002493	0.0023410	0.00002)
(0.001035	0.0022350	0.00002)
(0.001031	0.0021850	0.00002)
(0.003079	0.0010900	0.00002)
(0.002008	0.0025390	0.00002)
(0.001844	0.0026410	0.00002)
(0.002605	0.0029160	0.00002)
(0.003019	0.0010550	0.00002)
(0.002891	0.0015630	0.00002)
(0.001571	0.0016000	0.00002)
(0.001250	0.0020460	0.00002)
(0.001604	0.0014160	0.00002)
(0.002791	0.0021750	0.00002)
(0.002144	0.0022920	0.00002)
(0.000590	0.0020320	0.00002)
(0.000663	0.0022090	0.00002)
(0.001570	0.0015920	0.00002)
(0.002776	0.0013560	0.00002)
(0.003057	0.0026510	0.00002)
(0.002179	0.0015210	0.00002)
(0.002365	0.0029530	0.00002)
(0.002059	0.0033290	0.00002)
(0.001912	0.0031790	0.00002)
(0.001550	0.0023880	0.00002)
(0.002399	0.0017420	0.00002)
(0.002600	0.0017970	0.00002)
(0.001356	0.0013030	0.00002)
(0.002496	0.0030900	0.00002)
(0.001762	0.0029580	0.00002)
(0.002344	0.0033270	0.00002)
(0.002016	0.0014030	0.00002)
(0.001966	0.0025570	0.00002)
(0.000954	0.0017650	0.00002)
(0.002286	0.0018370	0.00002)
(0.001976	0.0011140	0.00002)
(0.001730	0.0010500	0.00002)
(0.001676	0.0023580	0.00002)
(0.001666	0.0025030	0.00002)
(0.002040	0.0021600	0.00002)
(0.001831	0.0019240	0.00002)
(0.000990	0.0013560	0.00002)
(0.001988	0.0024190	0.00002)
(0.000766	0.0020560	0.00002)
(0.000890	0.0025060	0.00002)
(0.002273	0.0017530	0.00002)
(0.001350	0.0010680	0.00002)
(0.002797	0.0009610	0.00002)
(0.001965	0.0023040	0.00002)
(0.001224	0.0025520	0.00002)
(0.001150	0.0020580	0.00002)
(0.000782	0.0020770	0.00002)
(0.001531	0.0026420	0.00002)
(0.002986	0.0012480	0.00002)
(0.002145	0.0029260	0.00002)
(0.002212	0.0013110	0.00002)
(0.001536	0.0021290	0.00002)
(0.002462	0.0018100	0.00002)
(0.002631	0.0030210	0.00002)
(0.000996	0.0029380	0.00002)
(0.001115	0.0012420	0.00002)
(0.002500	0.0009810	0.00002)
(0.002002	0.0032640	0.00002)
(0.001364	0.0029880	0.00002)
(0.002505	0.0010680	0.00002)
(0.000844	0.0026000	0.00002)
(0.001681	0.0019080	0.00002)
(0.001367	0.0030510	0.00002)
(0.002284	0.0030280	0.00002)
(0.002476	0.0019520	0.00002)
(0.000817	0.0022770	0.00002)
(0.002736	0.0022000	0.00002)
(0.000905	0.0020480	0.00002)
(0.002379	0.0017850	0.00002)
(0.001682	0.0005720	0.00002)
(0.002294	0.0014960	0.00002)
(0.002537	0.0032990	0.00002)
(0.001547	0.0019780	0.00002)
(0.001375	0.0015380	0.00002)
(0.001635	0.0016280	0.00002)
(0.001012	0.0018900	0.00002)
(0.000661	0.0016860	0.00002)
(0.002660	0.0030500	0.00002)
(0.003012	0.0021500	0.00002)
(0.001406	0.0018750	0.00002)
(0.002450	0.0017330	0.00002)
(0.002432	0.0025360	0.00002)
(0.002453	0.0032300	0.00002)
(0.002080	0.0016500	0.00002)
(0.001004	0.0012840	0.00002)
(0.002098	0.0019880	0.00002)
(0.001287	0.0016310	0.00002)
(0.001140	0.0028350	0.00002)
(0.003039	0.0010770	0.00002)
(0.001576	0.0030810	0.00002)
(0.003160	0.0014650	0.00002)
(0.001307	0.0018200	0.00002)
(0.002080	0.0030850	0.00002)
(0.002379	0.0028690	0.00002)
(0.002458	0.0012780	0.00002)
(0.001812	0.0009090	0.00002)
(0.002522	0.0007680	0.00002)
(0.001129	0.0014050	0.00002)
(0.002974	0.0027150	0.00002)
(0.001632	0.0015030	0.00002)
(0.001411	0.0011150	0.00002)
(0.003149	0.0017380	0.00002)
(0.001662	0.0023770	0.00002)
(0.000840	0.0028340	0.00002)
(0.002175	0.0010820	0.00002)
(0.002640	0.0028100	0.00002)
(0.001211	0.0012790	0.00002)
(0.003095	0.0020700	0.00002)
(0.003018	0.0018960	0.00002)
(0.000656	0.0015690	0.00002)
(0.002277	0.0018030	0.00002)
(0.003080	0.0028280	0.00002)
(0.001350	0.0006710	0.00002)
(0.000944	0.0011190	0.00002)
(0.002670	0.0026190	0.00002)
(0.002476	0.0021980	0.00002)
(0.001721	0.0007110	0.00002)
(0.001671	0.0020490	0.00002)
(0.001177	0.0016670	0.00002)
(0.001511	0.0023560	0.00002)
(0.003072	0.0013510	0.00002)
(0.001183	0.0026800	0.00002)
(0.001879	0.0029280	0.00002)
(0.000936	0.0025080	0.00002)
(0.001227	0.0018630	0.00002)
(0.001463	0.0012020	0.00002)
(0.002167	0.0010240	0.00002)
(0.000660	0.0019550	0.00002)
(0.003031	0.0027090	0.00002)
(0.002930	0.0014200	0.00002)
(0.001572	0.0028760	0.00002)
(0.002261	0.0022090	0.00002)
(0.001312	0.0021580	0.00002)
(0.002094	0.0026980	0.00002)
(0.002374	0.0017530	0.00002)
(0.000783	0.0016090	0.00002)
(0.002858	0.0028010	0.00002)
(0.002833	0.0014340	0.00002)
(0.002790	0.0019050	0.00002)
(0.002306	0.0027940	0.00002)
(0.002822	0.0009560	0.00002)
(0.001284	0.0027360	0.00002)
(0.001131	0.0023950	0.00002)
(0.002576	0.0014090	0.00002)
(0.002675	0.0025010	0.00002)
(0.001852	0.0030140	0.00002)
(0.002231	0.0024920	0.00002)
(0.001180	0.0013650	0.00002)
(0.002129	0.0013810	0.00002)
(0.002267	0.0033020	0.00002)
(0.001617	0.0017120	0.00002)
(0.001789	0.0019410	0.00002)
(0.002055	0.0014020	0.00002)
(0.001711	0.0027700	0.00002)
(0.002210	0.0019290	0.00002)
(0.001199	0.0012710	0.00002)
(0.002217	0.0031200	0.00002)
(0.000654	0.0024380	0.00002)
(0.001953	0.0008290	0.00002)
(0.001871	0.0006390	0.00002)
(0.001190	0.0008390	0.00002)
(0.001949	0.0011610	0.00002)
(0.001327	0.0030450	0.00002)
(0.001640	0.0011550	0.00002)
(0.002147	0.0031470	0.00002)
(0.002399	0.0014960	0.00002)
(0.001257	0.0018750	0.00002)
(0.002937	0.0017540	0.00002)
(0.001857	0.0026790	0.00002)
(0.002226	0.0023460	0.00002)
(0.000818	0.0013120	0.00002)
(0.001537	0.0029150	0.00002)
(0.002442	0.0014360	0.00002)
(0.001683	0.0010090	0.00002)
(0.002474	0.0023570	0.00002)
(0.001606	0.0010120	0.00002)
(0.001564	0.0028580	0.00002)
(0.001114	0.0019110	0.00002)
(0.002236	0.0019180	0.00002)
(0.002218	0.0020780	0.00002)
(0.001706	0.0014180	0.00002)
(0.002390	0.0031000	0.00002)
(0.002612	0.0021550	0.00002)
(0.002110	0.0025930	0.00002)
(0.001835	0.0014660	0.00002)
(0.002115	0.0021650	0.00002)
(0.001989	0.0010060	0.00002)
(0.000879	0.0011420	0.00002)
(0.001158	0.0029220	0.00002)
(0.002579	0.0025300	0.00002)
(0.002033	0.0028500	0.00002)
(0.001055	0.0020040	0.00002)
(0.001727	0.0016480	0.00002)
(0.001509	0.0013650	0.00002)
(0.002174	0.0013460	0.00002)
(0.002346	0.0013890	0.00002)
(0.002086	0.0014390	0.00002)
(0.003072	0.0030120	0.00002)
(0.002798	0.0020500	0.00002)
(0.002107	0.0007200	0.00002)
(0.001928	0.0028640	0.00002)
(0.002215	0.0007800	0.00002)
(0.000992	0.0024810	0.00002)
(0.001862	0.0015200	0.00002)
(0.002383	0.0014660	0.00002)
(0.001878	0.0014580	0.00002)
(0.001993	0.0025030	0.00002)
(0.000907	0.0020810	0.00002)
(0.001455	0.0018980	0.00002)
(0.002097	0.0021320	0.00002)
(0.002146	0.0018780	0.00002)
(0.001349	0.0028100	0.00002)
(0.002874	0.0027580	0.00002)
(0.002155	0.0013630	0.00002)
(0.001462	0.0024400	0.00002)
(0.001409	0.0006740	0.00002)
(0.001866	0.0016080	0.00002)
(0.001483	0.0027390	0.00002)
(0.000984	0.0025940	0.00002)
(0.002212	0.0022240	0.00002)
(0.002080	0.0012140	0.00002)
(0.002197	0.0023090	0.00002)
(0.001649	0.0019780	0.00002)
(0.001242	0.0020310	0.00002)
(0.000789	0.0022450	0.00002)
(0.001728	0.0015330	0.00002)
(0.000818	0.0026190	0.00002)
(0.001182	0.0011110	0.00002)
(0.001553	0.0032880	0.00002)
(0.001738	0.0013810	0.00002)
(0.002462	0.0018120	0.00002)
(0.000855	0.0013800	0.00002)
(0.001810	0.0032830	0.00002)
(0.000976	0.0015850	0.00002)
(0.002922	0.0011230	0.00002)
(0.002223	0.0024030	0.00002)
(0.002695	0.0015840	0.00002)
(0.001186	0.0014620	0.00002)
(0.002020	0.0012920	0.00002)
(0.002136	0.0016740	0.00002)
(0.001989	0.0028310	0.00002)
(0.001653	0.0026520	0.00002)
(0.001786	0.0010130	0.00002)
(0.002403	0.0030460	0.00002)
(0.002703	0.0032170	0.00002)
(0.001193	0.0029950	0.00002)
(0.002667	0.0019050	0.00002)
(0.002119	0.0019800	0.00002)
(0.001778	0.0015020	0.00002)
(0.000647	0.0017420	0.00002)
(0.000810	0.0026550	0.00002)
(0.001659	0.0015320	0.00002)
(0.003155	0.0027640	0.00002)
(0.003163	0.0022890	0.00002)
(0.001344	0.0017660	0.00002)
(0.002751	0.0027380	0.00002)
(0.001120	0.0020530	0.00002)
(0.001301	0.0020400	0.00002)
(0.002338	0.0019360	0.00002)
(0.001922	0.0019690	0.00002)
(0.002355	0.0016900	0.00002)
(0.003162	0.0024770	0.00002)
(0.002036	0.0017590	0.00002)
(0.002035	0.0018920	0.00002)
(0.001786	0.0018590	0.00002)
(0.001007	0.0024720	0.00002)
(0.002625	0.0027040	0.00002)
(0.001973	0.0019860	0.00002)
(0.000905	0.0015870	0.00002)
(0.001113	0.0020530	0.00002)
(0.000651	0.0015790	0.00002)
(0.002353	0.0015140	0.00002)
(0.002858	0.0013540	0.00002)
(0.001897	0.0014780	0.00002)
(0.002428	0.0010530	0.00002)
(0.001247	0.0028010	0.00002)
(0.002159	0.0031520	0.00002)
(0.001132	0.0014450	0.00002)
(0.001457	0.0022420	0.00002)
(0.002578	0.0033090	0.00002)
(0.003110	0.0022780	0.00002)
(0.002637	0.0020820	0.00002)
(0.001751	0.0023440	0.00002)
(0.003330	0.0026260	0.00002)
(0.002178	0.0030700	0.00002)
(0.001419	0.0007630	0.00002)
(0.001494	0.0027070	0.00002)
(0.002230	0.0022110	0.00002)
(0.001995	0.0033810	0.00002)
(0.002295	0.0029000	0.00002)
(0.003026	0.0024530	0.00002)
(0.002646	0.0029670	0.00002)
(0.001537	0.0010850	0.00002)
(0.003115	0.0012070	0.00002)
(0.002530	0.0017310	0.00002)
(0.002028	0.0024930	0.00002)
(0.000782	0.0017500	0.00002)
(0.003159	0.0025950	0.00002)
(0.002186	0.0017280	0.00002)
(0.001720	0.0022910	0.00002)
(0.001109	0.0028140	0.00002)
(0.001852	0.0025560	0.00002)
(0.002320	0.0023700	0.00002)
(0.002085	0.0021810	0.00002)
(0.003016	0.0022300	0.00002)
(0.000638	0.0025330	0.00002)
(0.001289	0.0017160	0.00002)
(0.001819	0.0010960	0.00002)
(0.002463	0.0032110	0.00002)
(0.000820	0.0027310	0.00002)
(0.002314	0.0033120	0.00002)
(0.001199	0.0029560	0.00002)
(0.002011	0.0024430	0.00002)
(0.001836	0.0016320	0.00002)
(0.000706	0.0019150	0.00002)
(0.003033	0.0027750	0.00002)
(0.002338	0.0031550	0.00002)
(0.002620	0.0009690	0.00002)
(0.001677	0.0012980	0.00002)
(0.002064	0.0024190	0.00002)
(0.002946	0.0011190	0.00002)
(0.001317	0.0014300	0.00002)
(0.001756	0.0007870	0.00002)
(0.002756	0.0025510	0.00002)
(0.001700	0.0024060	0.00002)
(0.001504	0.0023230	0.00002)
(0.002184	0.0029350	0.00002)
(0.002249	0.0023400	0.00002)
(0.002513	0.0020710	0.00002)
(0.002496	0.0022310	0.00002)
(0.001858	0.0031530	0.00002)
(0.002861	0.0017810	0.00002)
(0.002502	0.0015230	0.00002)
(0.002179	0.0005550	0.00002)
(0.000832	0.0024710	0.00002)
(0.002199	0.0022540	0.00002)
(0.001935	0.0034440	0.00002)
(0.002318	0.0017260	0.00002)
(0.002703	0.0019480	0.00002)
(0.002386	0.0032970	0.00002)
(0.001606	0.0014480	0.00002)
(0.002169	0.0026440	0.00002)
(0.002467	0.0029280	0.00002)
(0.002584	0.0012980	0.00002)
(0.000787	0.0022880	0.00002)